           6
  -5.1160187007982683E-003
O   -0.0000000000   0.1190653705   0.0000000000
H    0.7605937732  -0.4762629505   0.0000000000
H   -0.7605937732  -0.4762600120   0.0000000000
O   -0.1679887140  -0.4753426834   3.2151322973
H   -0.0634486260   0.1686335022   2.4978469295
H   -0.3198294172   0.0749746560   3.9975010776
