           9
  -3.6521114952832922E-005
C   -3.8491420734   0.9699960685  -6.0360071269
C   -3.4337049445   0.8951001114  -7.4818162978
C   -3.8989732011   2.2036399266  -6.8987549181
H   -4.0933308190   0.3831611107  -8.1756551449
H   -2.3769837872   0.7829394681  -7.7031550570
H   -4.8733307597   2.5770702287  -7.1980386930
H   -3.1569621930   2.9767720701  -6.7256924932
H   -3.0734094449   0.9086005462  -5.2790729030
H   -4.7898337653   0.5088071467  -5.7515113451
           9
  -4.6083060718897343E-005
C   -3.5845534489   0.7054074440  -5.7714185024
C   -3.1691163200   0.6305114869  -7.2172276733
C   -3.6343845766   1.9390513021  -6.6341662936
H   -3.8287421945   0.1185724862  -7.9110665204
H   -2.1123951627   0.5183508436  -7.4385664325
H   -4.6087421352   2.3124816042  -6.9334500685
H   -2.8923735685   2.7121834456  -6.4611038687
H   -2.8088208204   0.6440119217  -5.0144842785
H   -4.5252451408   0.2442185222  -5.4869227206
           9
  -5.6519029896902545E-005
C   -3.3199648244   0.7054074440  -5.5068298779
C   -2.9045276955   0.6305114869  -6.9526390488
C   -3.3697959521   1.9390513021  -6.3695776691
H   -3.5641535700   0.1185724862  -7.6464778959
H   -1.8478065382   0.5183508436  -7.1739778080
H   -4.3441535107   2.3124816042  -6.6688614440
H   -2.6277849440   2.7121834456  -6.1965152442
H   -2.5442321959   0.6440119217  -4.7498956540
H   -4.2606565163   0.2442185222  -5.2223340961
           9
  -6.8714549212093548E-005
C   -3.0553761999   0.9699960685  -5.2422412534
C   -2.6399390710   0.8951001114  -6.6880504243
C   -3.1052073276   2.2036399266  -6.1049890446
H   -3.2995649455   0.3831611107  -7.3818892714
H   -1.5832179137   0.7829394681  -6.9093891835
H   -4.0795648862   2.5770702287  -6.4042728195
H   -2.3631963195   2.9767720701  -5.9319266197
H   -2.2796435714   0.9086005462  -4.4853070295
H   -3.9960678918   0.5088071467  -4.9577454716
           9
  -8.2436879480300186E-005
C   -3.0553761999   0.9699960685  -4.9776526289
C   -2.6399390710   0.8951001114  -6.4234617998
C   -3.1052073276   2.2036399266  -5.8404004201
H   -3.2995649455   0.3831611107  -7.1173006469
H   -1.5832179137   0.7829394681  -6.6448005590
H   -4.0795648862   2.5770702287  -6.1396841950
H   -2.3631963195   2.9767720701  -5.6673379952
H   -2.2796435714   0.9086005462  -4.2207184050
H   -3.9960678918   0.5088071467  -4.6931568471
           9
  -9.9099220166454357E-005
C   -3.0553761999   0.9699960685  -4.7130640044
C   -2.6399390710   0.8951001114  -6.1588731753
C   -3.1052073276   2.2036399266  -5.5758117956
H   -3.2995649455   0.3831611107  -6.8527120224
H   -1.5832179137   0.7829394681  -6.3802119345
H   -4.0795648862   2.5770702287  -5.8750955705
H   -2.3631963195   2.9767720701  -5.4027493707
H   -2.2796435714   0.9086005462  -3.9561297805
H   -3.9960678918   0.5088071467  -4.4285682226
           9
  -1.1984815846883428E-004
C   -3.3199648244   0.9699960685  -4.4484753799
C   -2.9045276955   0.8951001114  -5.8942845508
C   -3.3697959521   2.2036399266  -5.3112231711
H   -3.5641535700   0.3831611107  -6.5881233979
H   -1.8478065382   0.7829394681  -6.1156233100
H   -4.3441535107   2.5770702287  -5.6105069460
H   -2.6277849440   2.9767720701  -5.1381607462
H   -2.5442321959   0.9086005462  -3.6915411560
H   -4.2606565163   0.5088071467  -4.1639795981
           9
  -1.4589550382036769E-004
C   -3.3199648244   0.9699960685  -4.1838867554
C   -2.9045276955   0.8951001114  -5.6296959263
C   -3.3697959521   2.2036399266  -5.0466345466
H   -3.5641535700   0.3831611107  -6.3235347734
H   -1.8478065382   0.7829394681  -5.8510346855
H   -4.3441535107   2.5770702287  -5.3459183215
H   -2.6277849440   2.9767720701  -4.8735721217
H   -2.5442321959   0.9086005462  -3.4269525315
H   -4.2606565163   0.5088071467  -3.8993909736
           9
  -1.7820783733994705E-004
C   -3.3199648244   0.9699960685  -3.9192981309
C   -2.9045276955   0.8951001114  -5.3651073018
C   -3.3697959521   2.2036399266  -4.7820459221
H   -3.5641535700   0.3831611107  -6.0589461489
H   -1.8478065382   0.7829394681  -5.5864460610
H   -4.3441535107   2.5770702287  -5.0813296970
H   -2.6277849440   2.9767720701  -4.6089834972
H   -2.5442321959   0.9086005462  -3.1623639070
H   -4.2606565163   0.5088071467  -3.6348023491
           9
  -2.1758657490946701E-004
C   -3.3199648244   0.9699960685  -3.6547095064
C   -2.9045276955   0.8951001114  -5.1005186773
C   -3.3697959521   2.2036399266  -4.5174572976
H   -3.5641535700   0.3831611107  -5.7943575244
H   -1.8478065382   0.7829394681  -5.3218574365
H   -4.3441535107   2.5770702287  -4.8167410725
H   -2.6277849440   2.9767720701  -4.3443948727
H   -2.5442321959   0.9086005462  -2.8977752825
H   -4.2606565163   0.5088071467  -3.3702137246
           9
  -2.9942553891224954E-004
C   -3.0611896572   0.8078245017  -3.4988151538
C   -2.6804529829   1.3333593197  -4.8580113541
C   -3.8526543492   1.9275597825  -4.1220892535
H   -2.8848243542   0.7081075380  -5.7216621704
H   -1.7756828665   1.9274872912  -4.9394573512
H   -4.8500899394   1.7043807117  -4.4877488851
H   -3.7408838462   2.9237501725  -3.7057044411
H   -2.4140055753   1.0464935816  -2.6605611500
H   -3.5231991988  -0.1729580676  -3.4427200036
           9
  -5.2793254111187422E-005
C   -3.5379395217  -3.5606643640   6.4268281731
C   -3.7609591436  -2.9734379246   5.0578910204
C   -3.8829684199  -4.4598310143   5.2687485319
H   -2.8963434017  -2.6051312770   4.5143930786
H   -4.6709569980  -2.4063925880   4.8887935579
H   -3.1009768287  -5.0972148640   4.8679685425
H   -4.8755672242  -4.8983617642   5.2422410691
H   -4.2971687775  -3.3909886458   7.1839682053
H   -2.5224839020  -3.5897594741   6.8096300665
           9
  -7.1811568283441620E-005
C   -3.2733508972  -3.2960757395   6.1622395486
C   -3.4963705191  -2.7088493001   4.7933023959
C   -3.6183797954  -4.1952423898   5.0041599074
H   -2.6317547772  -2.3405426525   4.2498044541
H   -4.4063683735  -2.1418039635   4.6242049334
H   -2.8363882042  -4.8326262395   4.6033799180
H   -4.6109785997  -4.6337731397   4.9776524446
H   -4.0325801530  -3.1264000213   6.9193795808
H   -2.2578952775  -3.3251708496   6.5450414420
           9
  -9.3647418771698043E-005
C   -3.0087622727  -3.0314871150   5.8976509241
C   -3.2317818946  -2.4442606756   4.5287137714
C   -3.3537911709  -3.9306537653   4.7395712829
H   -2.3671661527  -2.0759540280   3.9852158296
H   -4.1417797490  -1.8772153390   4.3596163089
H   -2.5717995797  -4.5680376150   4.3387912935
H   -4.3463899752  -4.3691845152   4.7130638201
H   -3.7679915285  -2.8618113968   6.6547909563
H   -1.9933066530  -3.0605822251   6.2804528175
           9
  -1.1861157141664406E-004
C   -3.2733508972  -2.7668984905   5.6330622996
C   -3.4963705191  -2.1796720511   4.2641251469
C   -3.6183797954  -3.6660651408   4.4749826584
H   -2.6317547772  -1.8113654035   3.7206272051
H   -4.4063683735  -1.6126267145   4.0950276844
H   -2.8363882042  -4.3034489905   4.0742026690
H   -4.6109785997  -4.1045958907   4.4484751956
H   -4.0325801530  -2.5972227723   6.3902023318
H   -2.2578952775  -2.7959936006   6.0158641930
           9
  -1.4953418502400420E-004
C   -3.2733508972  -2.5023098660   5.3684736751
C   -3.4963705191  -1.9150834266   3.9995365224
C   -3.6183797954  -3.4014765163   4.2103940339
H   -2.6317547772  -1.5467767790   3.4560385806
H   -4.4063683735  -1.3480380900   3.8304390599
H   -2.8363882042  -4.0388603660   3.8096140445
H   -4.6109785997  -3.8400072662   4.1838865711
H   -4.0325801530  -2.3326341478   6.1256137073
H   -2.2578952775  -2.5314049761   5.7512755685
           9
  -1.9212766871848605E-004
C   -3.2733508972  -2.5023098660   5.1038850506
C   -3.4963705191  -1.9150834266   3.7349478979
C   -3.6183797954  -3.4014765163   3.9458054094
H   -2.6317547772  -1.5467767790   3.1914499561
H   -4.4063683735  -1.3480380900   3.5658504354
H   -2.8363882042  -4.0388603660   3.5450254200
H   -4.6109785997  -3.8400072662   3.9192979466
H   -4.0325801530  -2.3326341478   5.8610250828
H   -2.2578952775  -2.5314049761   5.4866869440
           9
  -2.4811091160319967E-004
C   -3.2733508972  -2.5023098660   4.8392964261
C   -3.4963705191  -1.9150834266   3.4703592734
C   -3.6183797954  -3.4014765163   3.6812167849
H   -2.6317547772  -1.5467767790   2.9268613316
H   -4.4063683735  -1.3480380900   3.3012618109
H   -2.8363882042  -4.0388603660   3.2804367955
H   -4.6109785997  -3.8400072662   3.6547093221
H   -4.0325801530  -2.3326341478   5.5964364583
H   -2.2578952775  -2.5314049761   5.2220983195
           9
  -3.2001274491502636E-004
C   -3.2733508972  -2.5023098660   4.5747078016
C   -3.4963705191  -1.9150834266   3.2057706489
C   -3.6183797954  -3.4014765163   3.4166281604
H   -2.6317547772  -1.5467767790   2.6622727071
H   -4.4063683735  -1.3480380900   3.0366731864
H   -2.8363882042  -4.0388603660   3.0158481710
H   -4.6109785997  -3.8400072662   3.3901206976
H   -4.0325801530  -2.3326341478   5.3318478338
H   -2.2578952775  -2.5314049761   4.9575096950
