          36
 Energy=    0.0000000000000000     
H   -1.2436331162   2.4957868964   0.0004898876
C   -1.2433725811   1.4056959877  -0.0074628375
C    0.0000021632   0.7169645749   0.0294400083
C   -2.4380710420   0.7086520258   0.0036812599
C   -0.0000039511  -0.7169441274  -0.0294288180
C    1.2433763647   1.4056933894  -0.0074671700
C   -2.4380677187  -0.7086578203  -0.0036818280
H   -3.3829534274   1.2487831274  -0.0138162714
C   -1.2433701681  -1.4056940245   0.0074622040
C    1.2433645270  -1.4056931831   0.0074628710
C    2.4380741641   0.7086500467   0.0036834009
H    1.2436355346   2.4957846474   0.0004871592
H   -3.3829477705  -1.2487931077   0.0138054043
H   -1.2436180664  -2.4957846474  -0.0004982306
C    2.4380688829  -0.7086624823  -0.0036840869
H    1.2436104780  -2.4957840917  -0.0004955041
H    3.3829558035   1.2487821273  -0.0138119178
H    3.3829467598  -1.2488012623   0.0138094501
C   -4.3539403206   1.0991448504  -6.2601896418
C   -3.1528403204   0.7791448503  -7.1107896420
C   -3.6750403205   2.1904448506  -7.0455896420
H   -3.3119403204   0.2187448502  -8.0268896422
H   -2.2165403202   0.5585448503  -6.6078896419
H   -4.1874403206   2.5849448507  -7.9174896422
H   -3.0919403203   2.9246448508  -6.4985896419
H   -4.2302403206   1.0951448504  -5.1816896416
H   -5.3257403208   0.7553448503  -6.6006896419
C   -4.3539452270  -3.9217416081   6.1298263854
C   -3.1528452267  -4.2417416082   5.2792263852
C   -3.6750452269  -2.8304416079   5.3444263852
H   -3.3119452268  -4.8021416083   4.3631263850
H   -2.2165452265  -4.4623416082   5.7821263853
H   -4.1874452270  -2.4359416078   4.4725263850
H   -3.0919452267  -2.0962416077   5.8914263853
H   -4.2302452270  -3.9257416081   7.2083263856
H   -5.3257452272  -4.2655416082   5.7893263853
